AMOSTRA/TAI/Chaves.dss
! ==========================================================
! CHAVES — geradas de UNSEMT (Line com Switch=Y)
! ==========================================================
! 42 chave(s) omitida(s): os dois PACs fora da rede de MT deste alimentador, o que criaria ilha flutuante — ex.: 3044285, 3176967, 3202537
New Line.2701496 Phases=1 Bus1=27384-10411996.1 Bus2=27384-10411996c.1 Switch=Y r1=1e-4 x1=1e-4 r0=1e-4 x0=1e-4 normamps=9999
New Line.2747298 Phases=1 Bus1=27342-10703398.2 Bus2=27342-10703398c.2 Switch=Y r1=1e-4 x1=1e-4 r0=1e-4 x0=1e-4 normamps=9999
New Line.2748157 Phases=1 Bus1=27342-10698874.1 Bus2=27342-10698874c.1 Switch=Y r1=1e-4 x1=1e-4 r0=1e-4 x0=1e-4 normamps=9999
New Line.2747170 Phases=1 Bus1=27342-10703422.1 Bus2=27342-10703422c.1 Switch=Y r1=1e-4 x1=1e-4 r0=1e-4 x0=1e-4 normamps=9999
New Line.2711149 Phases=1 Bus1=15604-10502117.2 Bus2=15604-10502117c.2 Switch=Y r1=1e-4 x1=1e-4 r0=1e-4 x0=1e-4 normamps=9999
New Line.2710021 Phases=1 Bus1=15604-10501564.2 Bus2=15604-10501564c.2 Switch=Y r1=1e-4 x1=1e-4 r0=1e-4 x0=1e-4 normamps=9999
New Line.2810797 Phases=1 Bus1=16284-11066612.1 Bus2=16284-11066612c.1 Switch=Y r1=1e-4 x1=1e-4 r0=1e-4 x0=1e-4 normamps=9999
New Line.2710898 Phases=3 Bus1=15604-10515450.1.2.3 Bus2=15604-10515450c.1.2.3 Switch=Y r1=1e-4 x1=1e-4 r0=1e-4 x0=1e-4 normamps=9999
New Line.2710139 Phases=1 Bus1=15604-10510120.1 Bus2=15604-10510120c.1 Switch=Y r1=1e-4 x1=1e-4 r0=1e-4 x0=1e-4 normamps=9999
New Line.2862857 Phases=3 Bus1=15604-10510379.1.2.3 Bus2=15604-10510379c.1.2.3 Switch=Y r1=1e-4 x1=1e-4 r0=1e-4 x0=1e-4 normamps=9999
New Line.2709795 Phases=1 Bus1=15604-10517085.1 Bus2=15604-10517085c.1 Switch=Y r1=1e-4 x1=1e-4 r0=1e-4 x0=1e-4 normamps=9999
New Line.2710185 Phases=1 Bus1=15604-10517793.2 Bus2=15604-10517793c.2 Switch=Y r1=1e-4 x1=1e-4 r0=1e-4 x0=1e-4 normamps=9999
New Line.3000065 Phases=3 Bus1=27384-11726785.1.2.3 Bus2=27384-11726785c.1.2.3 Switch=Y r1=1e-4 x1=1e-4 r0=1e-4 x0=1e-4 normamps=9999
New Line.2254175 Phases=3 Bus1=27383-7879117.1.2.3 Bus2=27383-7879117c.1.2.3 Switch=Y r1=1e-4 x1=1e-4 r0=1e-4 x0=1e-4 normamps=9999
New Line.2254178 Phases=3 Bus1=27383-7879123.1.2.3 Bus2=27383-7879123c.1.2.3 Switch=Y r1=1e-4 x1=1e-4 r0=1e-4 x0=1e-4 normamps=9999
New Line.2709082 Phases=1 Bus1=15604-10509538.3 Bus2=15604-10509538c.3 Switch=Y r1=1e-4 x1=1e-4 r0=1e-4 x0=1e-4 normamps=9999
New Line.2307320 Phases=3 Bus1=27385-8232037.1.2.3 Bus2=27385-8232037c.1.2.3 Switch=Y r1=1e-4 x1=1e-4 r0=1e-4 x0=1e-4 normamps=9999
New Line.2307398 Phases=1 Bus1=27385-8232348.1 Bus2=27385-8232348c.1 Switch=Y r1=1e-4 x1=1e-4 r0=1e-4 x0=1e-4 normamps=9999
New Line.2747395 Phases=1 Bus1=27342-10709160.1 Bus2=27342-10709160c.1 Switch=Y r1=1e-4 x1=1e-4 r0=1e-4 x0=1e-4 normamps=9999
New Line.2746459 Phases=1 Bus1=27342-10707014.3 Bus2=27342-10707014c.3 Switch=Y r1=1e-4 x1=1e-4 r0=1e-4 x0=1e-4 normamps=9999
New Line.2747839 Phases=1 Bus1=27342-10711143.3 Bus2=27342-10711143c.3 Switch=Y r1=1e-4 x1=1e-4 r0=1e-4 x0=1e-4 normamps=9999
New Line.2307359 Phases=1 Bus1=27385-8232010.2 Bus2=27385-8232010c.2 Switch=Y r1=1e-4 x1=1e-4 r0=1e-4 x0=1e-4 normamps=9999
New Line.2307447 Phases=3 Bus1=27385-8231808.1.2.3 Bus2=27385-8231808c.1.2.3 Switch=Y r1=1e-4 x1=1e-4 r0=1e-4 x0=1e-4 normamps=9999
New Line.2811371 Phases=1 Bus1=16284-11071856.1 Bus2=16284-11071856c.1 Switch=Y r1=1e-4 x1=1e-4 r0=1e-4 x0=1e-4 normamps=9999
New Line.2811178 Phases=1 Bus1=16284-11071150.2 Bus2=16284-11071150c.2 Switch=Y r1=1e-4 x1=1e-4 r0=1e-4 x0=1e-4 normamps=9999
New Line.2811254 Phases=1 Bus1=16284-11069947.2 Bus2=16284-11069947c.2 Switch=Y r1=1e-4 x1=1e-4 r0=1e-4 x0=1e-4 normamps=9999
New Line.2709656 Phases=1 Bus1=15604-10508874.1 Bus2=15604-10508874c.1 Switch=Y r1=1e-4 x1=1e-4 r0=1e-4 x0=1e-4 normamps=9999
New Line.2710345 Phases=1 Bus1=15604-10508844.1 Bus2=15604-10508844c.1 Switch=Y r1=1e-4 x1=1e-4 r0=1e-4 x0=1e-4 normamps=9999
New Line.2710595 Phases=1 Bus1=15604-10514038.2 Bus2=15604-10514038c.2 Switch=Y r1=1e-4 x1=1e-4 r0=1e-4 x0=1e-4 normamps=9999
New Line.2710331 Phases=1 Bus1=15604-10511531.3 Bus2=15604-10511531c.3 Switch=Y r1=1e-4 x1=1e-4 r0=1e-4 x0=1e-4 normamps=9999
New Line.2710736 Phases=1 Bus1=15604-10511622.2 Bus2=15604-10511622c.2 Switch=Y r1=1e-4 x1=1e-4 r0=1e-4 x0=1e-4 normamps=9999
New Line.3059640 Phases=1 Bus1=15604-10513349.1 Bus2=15604-10513349c.1 Switch=Y r1=1e-4 x1=1e-4 r0=1e-4 x0=1e-4 normamps=9999
New Line.2711310 Phases=1 Bus1=15604-10511547.2 Bus2=15604-10511547c.2 Switch=Y r1=1e-4 x1=1e-4 r0=1e-4 x0=1e-4 normamps=9999
New Line.2710472 Phases=1 Bus1=15604-10513532.1 Bus2=15604-10513532c.1 Switch=Y r1=1e-4 x1=1e-4 r0=1e-4 x0=1e-4 normamps=9999
New Line.2711666 Phases=1 Bus1=15604-10511054.3 Bus2=15604-10511054c.3 Switch=Y r1=1e-4 x1=1e-4 r0=1e-4 x0=1e-4 normamps=9999
New Line.2710272 Phases=1 Bus1=15604-10513201.2 Bus2=15604-10513201c.2 Switch=Y r1=1e-4 x1=1e-4 r0=1e-4 x0=1e-4 normamps=9999
New Line.2709108 Phases=3 Bus1=15604-10513830.1.2.3 Bus2=15604-10513830c.1.2.3 Switch=Y r1=1e-4 x1=1e-4 r0=1e-4 x0=1e-4 normamps=9999
New Line.2709928 Phases=3 Bus1=15604-10514535.1.2.3 Bus2=15604-10514535c.1.2.3 Switch=Y r1=1e-4 x1=1e-4 r0=1e-4 x0=1e-4 normamps=9999
New Line.2709413 Phases=1 Bus1=15604-10514655.1 Bus2=15604-10514655c.1 Switch=Y r1=1e-4 x1=1e-4 r0=1e-4 x0=1e-4 normamps=9999
New Line.2747193 Phases=1 Bus1=27342-10702952.2 Bus2=27342-10702952c.2 Switch=Y r1=1e-4 x1=1e-4 r0=1e-4 x0=1e-4 normamps=9999
New Line.2810633 Phases=1 Bus1=16284-11303300.2 Bus2=16284-11303300c.2 Switch=Y r1=1e-4 x1=1e-4 r0=1e-4 x0=1e-4 normamps=9999
New Line.2811601 Phases=1 Bus1=16284-11303312.2 Bus2=16284-11303312c.2 Switch=Y r1=1e-4 x1=1e-4 r0=1e-4 x0=1e-4 normamps=9999
New Line.2811341 Phases=1 Bus1=16284-11303313.1 Bus2=16284-11303313c.1 Switch=Y r1=1e-4 x1=1e-4 r0=1e-4 x0=1e-4 normamps=9999
New Line.2711070 Phases=1 Bus1=15604-11303317.1 Bus2=15604-11303317c.1 Switch=Y r1=1e-4 x1=1e-4 r0=1e-4 x0=1e-4 normamps=9999
New Line.3142527 Phases=3 Bus1=27384-11377779.1.2.3 Bus2=27384-11377779c.1.2.3 Switch=Y r1=1e-4 x1=1e-4 r0=1e-4 x0=1e-4 normamps=9999
New Line.3142469 Phases=3 Bus1=27384-11377773.1.2.3 Bus2=27384-11377773c.1.2.3 Switch=Y r1=1e-4 x1=1e-4 r0=1e-4 x0=1e-4 normamps=9999
New Line.3142458 Phases=3 Bus1=27384-11377771.1.2.3 Bus2=27384-11377771c.1.2.3 Switch=Y r1=1e-4 x1=1e-4 r0=1e-4 x0=1e-4 normamps=9999
New Line.2958971 Phases=2 Bus1=27342-11533262.1.2 Bus2=27342-11533262c.1.2 Switch=Y r1=1e-4 x1=1e-4 r0=1e-4 x0=1e-4 normamps=9999
New Line.2709370 Phases=3 Bus1=15604-11637278.1.2.3 Bus2=15604-11637278c.1.2.3 Switch=Y r1=1e-4 x1=1e-4 r0=1e-4 x0=1e-4 normamps=9999
New Line.3027679 Phases=2 Bus1=27342-11888967.1.2 Bus2=27342-11888967c.1.2 Switch=Y r1=1e-4 x1=1e-4 r0=1e-4 x0=1e-4 normamps=9999
New Line.3019106 Phases=2 Bus1=27342-11828660.3.1 Bus2=27342-11828660c.3.1 Switch=Y r1=1e-4 x1=1e-4 r0=1e-4 x0=1e-4 normamps=9999
New Line.3162995 Phases=3 Bus1=27385-12757874.1.2.3 Bus2=27385-12757874c.1.2.3 Switch=Y r1=1e-4 x1=1e-4 r0=1e-4 x0=1e-4 normamps=9999
New Line.3142231 Phases=3 Bus1=27385-12609906.1.2.3 Bus2=27385-12609906c.1.2.3 Switch=Y r1=1e-4 x1=1e-4 r0=1e-4 x0=1e-4 normamps=9999
New Line.3166242 Phases=1 Bus1=27342-12781440.3 Bus2=27342-12781440c.3 Switch=Y r1=1e-4 x1=1e-4 r0=1e-4 x0=1e-4 normamps=9999
New Line.3172403 Phases=1 Bus1=27342-12825363.2 Bus2=27342-12825363c.2 Switch=Y r1=1e-4 x1=1e-4 r0=1e-4 x0=1e-4 normamps=9999
New Line.3181439 Phases=2 Bus1=27342-12897176.1.2 Bus2=27342-12897176c.1.2 Switch=Y r1=1e-4 x1=1e-4 r0=1e-4 x0=1e-4 normamps=9999
New Line.2747975 Phases=1 Bus1=27342-10696922.3 Bus2=27342-10696922c.3 Switch=Y r1=1e-4 x1=1e-4 r0=1e-4 x0=1e-4 normamps=9999
New Line.2747329 Phases=1 Bus1=27342-10704599.3 Bus2=27342-10704599c.3 Switch=Y r1=1e-4 x1=1e-4 r0=1e-4 x0=1e-4 normamps=9999
New Line.2709729 Phases=1 Bus1=15604-10501060.3 Bus2=15604-10501060c.3 Switch=Y r1=1e-4 x1=1e-4 r0=1e-4 x0=1e-4 normamps=9999
New Line.2710459 Phases=1 Bus1=15604-10507078.2 Bus2=15604-10507078c.2 Switch=Y r1=1e-4 x1=1e-4 r0=1e-4 x0=1e-4 normamps=9999
New Line.2711017 Phases=1 Bus1=15604-10502396.2 Bus2=15604-10502396c.2 Switch=Y r1=1e-4 x1=1e-4 r0=1e-4 x0=1e-4 normamps=9999
New Line.2998783 Phases=1 Bus1=16284-11064027.1 Bus2=16284-11064027c.1 Switch=Y r1=1e-4 x1=1e-4 r0=1e-4 x0=1e-4 normamps=9999
New Line.2811372 Phases=1 Bus1=16284-11061174.1 Bus2=16284-11061174c.1 Switch=Y r1=1e-4 x1=1e-4 r0=1e-4 x0=1e-4 normamps=9999
New Line.2810525 Phases=3 Bus1=16284-11065916.1.2.3 Bus2=16284-11065916c.1.2.3 Switch=Y r1=1e-4 x1=1e-4 r0=1e-4 x0=1e-4 normamps=9999
New Line.2709977 Phases=1 Bus1=15604-10515516.1 Bus2=15604-10515516c.1 Switch=Y r1=1e-4 x1=1e-4 r0=1e-4 x0=1e-4 normamps=9999
New Line.2709946 Phases=1 Bus1=15604-10509996.2 Bus2=15604-10509996c.2 Switch=Y r1=1e-4 x1=1e-4 r0=1e-4 x0=1e-4 normamps=9999
New Line.2709198 Phases=1 Bus1=15604-10518863.2 Bus2=15604-10518863c.2 Switch=Y r1=1e-4 x1=1e-4 r0=1e-4 x0=1e-4 normamps=9999
New Line.3178339 Phases=2 Bus1=16284-12878631.1.2 Bus2=16284-12878631c.1.2 Switch=Y r1=1e-4 x1=1e-4 r0=1e-4 x0=1e-4 normamps=9999
New Line.2711488 Phases=1 Bus1=15604-10507761.1 Bus2=15604-10507761c.1 Switch=Y r1=1e-4 x1=1e-4 r0=1e-4 x0=1e-4 normamps=9999
New Line.2701302 Phases=1 Bus1=27384-10412863.1 Bus2=27384-10412863c.1 Switch=Y r1=1e-4 x1=1e-4 r0=1e-4 x0=1e-4 normamps=9999
New Line.2701440 Phases=3 Bus1=27384-10413133.1.2.3 Bus2=27384-10413133c.1.2.3 Switch=Y r1=1e-4 x1=1e-4 r0=1e-4 x0=1e-4 normamps=9999
New Line.2710788 Phases=3 Bus1=15604-10509535.1.2.3 Bus2=15604-10509535c.1.2.3 Switch=Y r1=1e-4 x1=1e-4 r0=1e-4 x0=1e-4 normamps=9999
New Line.2709722 Phases=3 Bus1=15604-10509640.1.2.3 Bus2=15604-10509640c.1.2.3 Switch=Y r1=1e-4 x1=1e-4 r0=1e-4 x0=1e-4 normamps=9999
New Line.2710369 Phases=1 Bus1=15604-10509641.2 Bus2=15604-10509641c.2 Switch=Y r1=1e-4 x1=1e-4 r0=1e-4 x0=1e-4 normamps=9999
New Line.2307518 Phases=3 Bus1=27385-8231027.1.2.3 Bus2=27385-8231027c.1.2.3 Switch=Y r1=1e-4 x1=1e-4 r0=1e-4 x0=1e-4 normamps=9999
New Line.2307539 Phases=1 Bus1=27385-8232356.2 Bus2=27385-8232356c.2 Switch=Y r1=1e-4 x1=1e-4 r0=1e-4 x0=1e-4 normamps=9999
New Line.2811172 Phases=1 Bus1=16284-11069475.1 Bus2=16284-11069475c.1 Switch=Y r1=1e-4 x1=1e-4 r0=1e-4 x0=1e-4 normamps=9999
New Line.2746439 Phases=1 Bus1=27342-10706588.2 Bus2=27342-10706588c.2 Switch=Y r1=1e-4 x1=1e-4 r0=1e-4 x0=1e-4 normamps=9999
New Line.2747371 Phases=1 Bus1=27342-10707403.3 Bus2=27342-10707403c.3 Switch=Y r1=1e-4 x1=1e-4 r0=1e-4 x0=1e-4 normamps=9999
New Line.2746406 Phases=1 Bus1=27342-10714606.2 Bus2=27342-10714606c.2 Switch=Y r1=1e-4 x1=1e-4 r0=1e-4 x0=1e-4 normamps=9999
New Line.2748218 Phases=3 Bus1=27342-10712632.1.2.3 Bus2=27342-10712632c.1.2.3 Switch=Y r1=1e-4 x1=1e-4 r0=1e-4 x0=1e-4 normamps=9999
New Line.2747077 Phases=1 Bus1=27342-10708278.2 Bus2=27342-10708278c.2 Switch=Y r1=1e-4 x1=1e-4 r0=1e-4 x0=1e-4 normamps=9999
New Line.2746713 Phases=1 Bus1=27342-10708500.3 Bus2=27342-10708500c.3 Switch=Y r1=1e-4 x1=1e-4 r0=1e-4 x0=1e-4 normamps=9999
New Line.2747079 Phases=1 Bus1=27342-10701928.2 Bus2=27342-10701928c.2 Switch=Y r1=1e-4 x1=1e-4 r0=1e-4 x0=1e-4 normamps=9999
New Line.2307587 Phases=3 Bus1=27385-8232086.1.2.3 Bus2=27385-8232086c.1.2.3 Switch=Y r1=1e-4 x1=1e-4 r0=1e-4 x0=1e-4 normamps=9999
New Line.2810838 Phases=1 Bus1=16284-11070454.1 Bus2=16284-11070454c.1 Switch=Y r1=1e-4 x1=1e-4 r0=1e-4 x0=1e-4 normamps=9999
New Line.2811909 Phases=1 Bus1=16284-11070482.1 Bus2=16284-11070482c.1 Switch=Y r1=1e-4 x1=1e-4 r0=1e-4 x0=1e-4 normamps=9999
New Line.2711304 Phases=3 Bus1=15604-10503034.1.2.3 Bus2=15604-10503034c.1.2.3 Switch=Y r1=1e-4 x1=1e-4 r0=1e-4 x0=1e-4 normamps=9999
New Line.2711557 Phases=1 Bus1=15604-10507316.2 Bus2=15604-10507316c.2 Switch=Y r1=1e-4 x1=1e-4 r0=1e-4 x0=1e-4 normamps=9999
New Line.2711265 Phases=1 Bus1=15604-10504094.3 Bus2=15604-10504094c.3 Switch=Y r1=1e-4 x1=1e-4 r0=1e-4 x0=1e-4 normamps=9999
New Line.2710566 Phases=1 Bus1=15604-10507383.3 Bus2=15604-10507383c.3 Switch=Y r1=1e-4 x1=1e-4 r0=1e-4 x0=1e-4 normamps=9999
New Line.2710290 Phases=1 Bus1=15604-10507389.3 Bus2=15604-10507389c.3 Switch=Y r1=1e-4 x1=1e-4 r0=1e-4 x0=1e-4 normamps=9999
New Line.2710726 Phases=1 Bus1=15604-10502830.1 Bus2=15604-10502830c.1 Switch=Y r1=1e-4 x1=1e-4 r0=1e-4 x0=1e-4 normamps=9999
New Line.2709753 Phases=1 Bus1=15604-10505166.1 Bus2=15604-10505166c.1 Switch=Y r1=1e-4 x1=1e-4 r0=1e-4 x0=1e-4 normamps=9999
New Line.2710188 Phases=3 Bus1=15604-10505555.1.2.3 Bus2=15604-10505555c.1.2.3 Switch=Y r1=1e-4 x1=1e-4 r0=1e-4 x0=1e-4 normamps=9999
New Line.2711383 Phases=1 Bus1=15604-10506290.1 Bus2=15604-10506290c.1 Switch=Y r1=1e-4 x1=1e-4 r0=1e-4 x0=1e-4 normamps=9999
New Line.2710823 Phases=1 Bus1=15604-10506404.3 Bus2=15604-10506404c.3 Switch=Y r1=1e-4 x1=1e-4 r0=1e-4 x0=1e-4 normamps=9999
New Line.2711064 Phases=1 Bus1=15604-10505551.1 Bus2=15604-10505551c.1 Switch=Y r1=1e-4 x1=1e-4 r0=1e-4 x0=1e-4 normamps=9999
New Line.2711469 Phases=1 Bus1=15604-10506170.3 Bus2=15604-10506170c.3 Switch=Y r1=1e-4 x1=1e-4 r0=1e-4 x0=1e-4 normamps=9999
New Line.2709195 Phases=1 Bus1=15604-10505520.1 Bus2=15604-10505520c.1 Switch=Y r1=1e-4 x1=1e-4 r0=1e-4 x0=1e-4 normamps=9999
New Line.2711213 Phases=1 Bus1=15604-10506498.2 Bus2=15604-10506498c.2 Switch=Y r1=1e-4 x1=1e-4 r0=1e-4 x0=1e-4 normamps=9999
New Line.2709767 Phases=1 Bus1=15604-10508604.3 Bus2=15604-10508604c.3 Switch=Y r1=1e-4 x1=1e-4 r0=1e-4 x0=1e-4 normamps=9999
New Line.2709357 Phases=1 Bus1=15604-10505479.3 Bus2=15604-10505479c.3 Switch=Y r1=1e-4 x1=1e-4 r0=1e-4 x0=1e-4 normamps=9999
New Line.2709209 Phases=3 Bus1=15604-10508702.1.2.3 Bus2=15604-10508702c.1.2.3 Switch=Y r1=1e-4 x1=1e-4 r0=1e-4 x0=1e-4 normamps=9999
New Line.3134698 Phases=3 Bus1=15604-10511254.1.2.3 Bus2=15604-10511254c.1.2.3 Switch=Y r1=1e-4 x1=1e-4 r0=1e-4 x0=1e-4 normamps=9999
New Line.2709764 Phases=1 Bus1=15604-10513961.2 Bus2=15604-10513961c.2 Switch=Y r1=1e-4 x1=1e-4 r0=1e-4 x0=1e-4 normamps=9999
New Line.2709211 Phases=1 Bus1=15604-10511462.1 Bus2=15604-10511462c.1 Switch=Y r1=1e-4 x1=1e-4 r0=1e-4 x0=1e-4 normamps=9999
New Line.2747374 Phases=1 Bus1=27342-10702912.3 Bus2=27342-10702912c.3 Switch=Y r1=1e-4 x1=1e-4 r0=1e-4 x0=1e-4 normamps=9999
New Line.2747081 Phases=1 Bus1=27342-10702946.1 Bus2=27342-10702946c.1 Switch=Y r1=1e-4 x1=1e-4 r0=1e-4 x0=1e-4 normamps=9999
New Line.2701353 Phases=1 Bus1=27384-10411420.1 Bus2=27384-10411420c.1 Switch=Y r1=1e-4 x1=1e-4 r0=1e-4 x0=1e-4 normamps=9999
New Line.2811505 Phases=3 Bus1=16284-11068786.1.2.3 Bus2=16284-11068786c.1.2.3 Switch=Y r1=1e-4 x1=1e-4 r0=1e-4 x0=1e-4 normamps=9999
New Line.2711292 Phases=1 Bus1=15604-10516358.2 Bus2=15604-10516358c.2 Switch=Y r1=1e-4 x1=1e-4 r0=1e-4 x0=1e-4 normamps=9999
New Line.2709314 Phases=1 Bus1=15604-11303322.1 Bus2=15604-11303322c.1 Switch=Y r1=1e-4 x1=1e-4 r0=1e-4 x0=1e-4 normamps=9999
New Line.2962237 Phases=1 Bus1=15604-11545886.3 Bus2=15604-11545886c.3 Switch=Y r1=1e-4 x1=1e-4 r0=1e-4 x0=1e-4 normamps=9999
New Line.2905845 Phases=1 Bus1=16284-11386509.1 Bus2=16284-11386509c.1 Switch=Y r1=1e-4 x1=1e-4 r0=1e-4 x0=1e-4 normamps=9999
New Line.2962328 Phases=1 Bus1=27342-11546300.1 Bus2=27342-11546300c.1 Switch=Y r1=1e-4 x1=1e-4 r0=1e-4 x0=1e-4 normamps=9999
New Line.2971683 Phases=3 Bus1=27384-11604109.1.2.3 Bus2=27384-11604109c.1.2.3 Switch=Y r1=1e-4 x1=1e-4 r0=1e-4 x0=1e-4 normamps=9999
New Line.3023254 Phases=1 Bus1=27342-11858091.2 Bus2=27342-11858091c.2 Switch=Y r1=1e-4 x1=1e-4 r0=1e-4 x0=1e-4 normamps=9999
New Line.3025819 Phases=1 Bus1=15604-11877048.1 Bus2=15604-11877048c.1 Switch=Y r1=1e-4 x1=1e-4 r0=1e-4 x0=1e-4 normamps=9999
New Line.3043906 Phases=2 Bus1=15604-11986334.1.2 Bus2=15604-11986334c.1.2 Switch=Y r1=1e-4 x1=1e-4 r0=1e-4 x0=1e-4 normamps=9999
New Line.3050912 Phases=2 Bus1=27342-12032189.2.3 Bus2=27342-12032189c.2.3 Switch=Y r1=1e-4 x1=1e-4 r0=1e-4 x0=1e-4 normamps=9999
New Line.3159764 Phases=3 Bus1=15604-12717472.1.2.3 Bus2=15604-12717472c.1.2.3 Switch=Y r1=1e-4 x1=1e-4 r0=1e-4 x0=1e-4 normamps=9999
New Line.3156944 Phases=3 Bus1=27342-12688147.1.2.3 Bus2=27342-12688147c.1.2.3 Switch=Y r1=1e-4 x1=1e-4 r0=1e-4 x0=1e-4 normamps=9999
New Line.3148194 Phases=3 Bus1=27384-12643246.1.2.3 Bus2=27384-12643246c.1.2.3 Switch=Y r1=1e-4 x1=1e-4 r0=1e-4 x0=1e-4 normamps=9999
New Line.3156942 Phases=3 Bus1=27382-12527713.1.2.3 Bus2=27382-12527713c.1.2.3 Switch=Y r1=1e-4 x1=1e-4 r0=1e-4 x0=1e-4 normamps=9999
New Line.3141354 Phases=3 Bus1=27385-12603684.1.2.3 Bus2=27385-12603684c.1.2.3 Switch=Y r1=1e-4 x1=1e-4 r0=1e-4 x0=1e-4 normamps=9999
New Line.3171566 Phases=1 Bus1=27342-12816965.3 Bus2=27342-12816965c.3 Switch=Y r1=1e-4 x1=1e-4 r0=1e-4 x0=1e-4 normamps=9999
New Line.3172555 Phases=1 Bus1=27342-12826144.2 Bus2=27342-12826144c.2 Switch=Y r1=1e-4 x1=1e-4 r0=1e-4 x0=1e-4 normamps=9999
New Line.3181456 Phases=2 Bus1=27342-12897189.1.2 Bus2=27342-12897189c.1.2 Switch=Y r1=1e-4 x1=1e-4 r0=1e-4 x0=1e-4 normamps=9999
New Line.3183900 Phases=1 Bus1=27342-12922414.3 Bus2=27342-12922414c.3 Switch=Y r1=1e-4 x1=1e-4 r0=1e-4 x0=1e-4 normamps=9999
New Line.3190971 Phases=1 Bus1=15604-13001440.1 Bus2=15604-13001440c.1 Switch=Y r1=1e-4 x1=1e-4 r0=1e-4 x0=1e-4 normamps=9999
New Line.2748008 Phases=3 Bus1=27342-10697306.1.2.3 Bus2=27342-10697306c.1.2.3 Switch=Y r1=1e-4 x1=1e-4 r0=1e-4 x0=1e-4 normamps=9999
New Line.2747967 Phases=1 Bus1=27342-10703852.1 Bus2=27342-10703852c.1 Switch=Y r1=1e-4 x1=1e-4 r0=1e-4 x0=1e-4 normamps=9999
New Line.2709570 Phases=1 Bus1=15604-10501652.2 Bus2=15604-10501652c.2 Switch=Y r1=1e-4 x1=1e-4 r0=1e-4 x0=1e-4 normamps=9999
New Line.2748009 Phases=1 Bus1=27342-10700131.2 Bus2=27342-10700131c.2 Switch=Y r1=1e-4 x1=1e-4 r0=1e-4 x0=1e-4 normamps=9999
New Line.2710785 Phases=1 Bus1=15604-10499599.2 Bus2=15604-10499599c.2 Switch=Y r1=1e-4 x1=1e-4 r0=1e-4 x0=1e-4 normamps=9999
New Line.2709715 Phases=1 Bus1=15604-10499639.1 Bus2=15604-10499639c.1 Switch=Y r1=1e-4 x1=1e-4 r0=1e-4 x0=1e-4 normamps=9999
New Line.2709781 Phases=1 Bus1=15604-10499652.1 Bus2=15604-10499652c.1 Switch=Y r1=1e-4 x1=1e-4 r0=1e-4 x0=1e-4 normamps=9999
New Line.2709528 Phases=1 Bus1=15604-10499841.1 Bus2=15604-10499841c.1 Switch=Y r1=1e-4 x1=1e-4 r0=1e-4 x0=1e-4 normamps=9999
New Line.2709177 Phases=1 Bus1=15604-10501544.3 Bus2=15604-10501544c.3 Switch=Y r1=1e-4 x1=1e-4 r0=1e-4 x0=1e-4 normamps=9999
New Line.2711601 Phases=1 Bus1=15604-10502065.2 Bus2=15604-10502065c.2 Switch=Y r1=1e-4 x1=1e-4 r0=1e-4 x0=1e-4 normamps=9999
New Line.2811401 Phases=1 Bus1=16284-11065457.2 Bus2=16284-11065457c.2 Switch=Y r1=1e-4 x1=1e-4 r0=1e-4 x0=1e-4 normamps=9999
New Line.2709991 Phases=3 Bus1=15604-10515427.1.2.3 Bus2=15604-10515427c.1.2.3 Switch=Y r1=1e-4 x1=1e-4 r0=1e-4 x0=1e-4 normamps=9999
New Line.2711572 Phases=1 Bus1=15604-10518132.2 Bus2=15604-10518132c.2 Switch=Y r1=1e-4 x1=1e-4 r0=1e-4 x0=1e-4 normamps=9999
New Line.2710769 Phases=1 Bus1=15604-10518384.1 Bus2=15604-10518384c.1 Switch=Y r1=1e-4 x1=1e-4 r0=1e-4 x0=1e-4 normamps=9999
New Line.2711259 Phases=1 Bus1=15604-10518231.1 Bus2=15604-10518231c.1 Switch=Y r1=1e-4 x1=1e-4 r0=1e-4 x0=1e-4 normamps=9999
New Line.2709206 Phases=1 Bus1=15604-10518769.2 Bus2=15604-10518769c.2 Switch=Y r1=1e-4 x1=1e-4 r0=1e-4 x0=1e-4 normamps=9999
New Line.2709756 Phases=1 Bus1=15604-10507714.3 Bus2=15604-10507714c.3 Switch=Y r1=1e-4 x1=1e-4 r0=1e-4 x0=1e-4 normamps=9999
New Line.2701300 Phases=3 Bus1=27384-10412793.1.2.3 Bus2=27384-10412793c.1.2.3 Switch=Y r1=1e-4 x1=1e-4 r0=1e-4 x0=1e-4 normamps=9999
New Line.2711146 Phases=3 Bus1=15604-10509592.1.2.3 Bus2=15604-10509592c.1.2.3 Switch=Y r1=1e-4 x1=1e-4 r0=1e-4 x0=1e-4 normamps=9999
New Line.2307276 Phases=3 Bus1=27385-8232446.1.2.3 Bus2=27385-8232446c.1.2.3 Switch=Y r1=1e-4 x1=1e-4 r0=1e-4 x0=1e-4 normamps=9999
New Line.2746763 Phases=1 Bus1=27342-10711784.1 Bus2=27342-10711784c.1 Switch=Y r1=1e-4 x1=1e-4 r0=1e-4 x0=1e-4 normamps=9999
New Line.2747235 Phases=1 Bus1=27342-10708549.2 Bus2=27342-10708549c.2 Switch=Y r1=1e-4 x1=1e-4 r0=1e-4 x0=1e-4 normamps=9999
New Line.2747352 Phases=1 Bus1=27342-10706895.1 Bus2=27342-10706895c.1 Switch=Y r1=1e-4 x1=1e-4 r0=1e-4 x0=1e-4 normamps=9999
New Line.2746890 Phases=3 Bus1=27342-10708293.1.2.3 Bus2=27342-10708293c.1.2.3 Switch=Y r1=1e-4 x1=1e-4 r0=1e-4 x0=1e-4 normamps=9999
New Line.2748216 Phases=1 Bus1=27342-10715211.1 Bus2=27342-10715211c.1 Switch=Y r1=1e-4 x1=1e-4 r0=1e-4 x0=1e-4 normamps=9999
New Line.2709141 Phases=1 Bus1=15604-10504665.1 Bus2=15604-10504665c.1 Switch=Y r1=1e-4 x1=1e-4 r0=1e-4 x0=1e-4 normamps=9999
New Line.2711560 Phases=3 Bus1=15604-10508007.1.2.3 Bus2=15604-10508007c.1.2.3 Switch=Y r1=1e-4 x1=1e-4 r0=1e-4 x0=1e-4 normamps=9999
New Line.2711605 Phases=1 Bus1=15604-10506184.3 Bus2=15604-10506184c.3 Switch=Y r1=1e-4 x1=1e-4 r0=1e-4 x0=1e-4 normamps=9999
New Line.2710145 Phases=1 Bus1=15604-10506129.3 Bus2=15604-10506129c.3 Switch=Y r1=1e-4 x1=1e-4 r0=1e-4 x0=1e-4 normamps=9999
New Line.2710516 Phases=3 Bus1=15604-10505472.1.2.3 Bus2=15604-10505472c.1.2.3 Switch=Y r1=1e-4 x1=1e-4 r0=1e-4 x0=1e-4 normamps=9999
New Line.2711309 Phases=1 Bus1=15604-10513505.1 Bus2=15604-10513505c.1 Switch=Y r1=1e-4 x1=1e-4 r0=1e-4 x0=1e-4 normamps=9999
New Line.2711380 Phases=1 Bus1=15604-10513836.2 Bus2=15604-10513836c.2 Switch=Y r1=1e-4 x1=1e-4 r0=1e-4 x0=1e-4 normamps=9999
New Line.2747982 Phases=1 Bus1=27342-10702616.3 Bus2=27342-10702616c.3 Switch=Y r1=1e-4 x1=1e-4 r0=1e-4 x0=1e-4 normamps=9999
New Line.2746413 Phases=1 Bus1=27342-10702919.3 Bus2=27342-10702919c.3 Switch=Y r1=1e-4 x1=1e-4 r0=1e-4 x0=1e-4 normamps=9999
New Line.2701531 Phases=1 Bus1=27384-10411415.1 Bus2=27384-10411415c.1 Switch=Y r1=1e-4 x1=1e-4 r0=1e-4 x0=1e-4 normamps=9999
New Line.2810794 Phases=1 Bus1=16284-11068298.1 Bus2=16284-11068298c.1 Switch=Y r1=1e-4 x1=1e-4 r0=1e-4 x0=1e-4 normamps=9999
New Line.2811379 Phases=1 Bus1=16284-11068015.2 Bus2=16284-11068015c.2 Switch=Y r1=1e-4 x1=1e-4 r0=1e-4 x0=1e-4 normamps=9999
New Line.2710488 Phases=1 Bus1=15604-10516262.1 Bus2=15604-10516262c.1 Switch=Y r1=1e-4 x1=1e-4 r0=1e-4 x0=1e-4 normamps=9999
New Line.2709387 Phases=1 Bus1=15604-10516375.2 Bus2=15604-10516375c.2 Switch=Y r1=1e-4 x1=1e-4 r0=1e-4 x0=1e-4 normamps=9999
New Line.2851504 Phases=3 Bus1=27383-11298901.1.2.3 Bus2=27383-11298901c.1.2.3 Switch=Y r1=1e-4 x1=1e-4 r0=1e-4 x0=1e-4 normamps=9999
New Line.2710741 Phases=1 Bus1=15604-11303329.3 Bus2=15604-11303329c.3 Switch=Y r1=1e-4 x1=1e-4 r0=1e-4 x0=1e-4 normamps=9999
New Line.2852195 Phases=1 Bus1=15604-11300350.1 Bus2=15604-11300350c.1 Switch=Y r1=1e-4 x1=1e-4 r0=1e-4 x0=1e-4 normamps=9999
New Line.2906440 Phases=1 Bus1=16284-11387317.1 Bus2=16284-11387317c.1 Switch=Y r1=1e-4 x1=1e-4 r0=1e-4 x0=1e-4 normamps=9999
New Line.3143437 Phases=3 Bus1=27385-12615667.1.2.3 Bus2=27385-12615667c.1.2.3 Switch=Y r1=1e-4 x1=1e-4 r0=1e-4 x0=1e-4 normamps=9999
New Line.2959169 Phases=2 Bus1=27342-11534172.1.2 Bus2=27342-11534172c.1.2 Switch=Y r1=1e-4 x1=1e-4 r0=1e-4 x0=1e-4 normamps=9999
New Line.2959126 Phases=1 Bus1=15604-11533985.3 Bus2=15604-11533985c.3 Switch=Y r1=1e-4 x1=1e-4 r0=1e-4 x0=1e-4 normamps=9999
New Line.3187098 Phases=2 Bus1=27342-11533350.1.2 Bus2=27342-11533350c.1.2 Switch=Y r1=1e-4 x1=1e-4 r0=1e-4 x0=1e-4 normamps=9999
New Line.2959198 Phases=1 Bus1=27342-11534393.3 Bus2=27342-11534393c.3 Switch=Y r1=1e-4 x1=1e-4 r0=1e-4 x0=1e-4 normamps=9999
New Line.2985288 Phases=1 Bus1=27342-11650982.2 Bus2=27342-11650982c.2 Switch=Y r1=1e-4 x1=1e-4 r0=1e-4 x0=1e-4 normamps=9999
New Line.3025811 Phases=1 Bus1=15604-11877015.3 Bus2=15604-11877015c.3 Switch=Y r1=1e-4 x1=1e-4 r0=1e-4 x0=1e-4 normamps=9999
New Line.2811593 Phases=3 Bus1=16284-12003194.1.2.3 Bus2=16284-12003194c.1.2.3 Switch=Y r1=1e-4 x1=1e-4 r0=1e-4 x0=1e-4 normamps=9999
New Line.3157427 Phases=3 Bus1=27384-12695134.1.2.3 Bus2=27384-12695134c.1.2.3 Switch=Y r1=1e-4 x1=1e-4 r0=1e-4 x0=1e-4 normamps=9999
New Line.3130966 Phases=3 Bus1=27382-12620151.1.2.3 Bus2=27382-12620151c.1.2.3 Switch=Y r1=1e-4 x1=1e-4 r0=1e-4 x0=1e-4 normamps=9999
New Line.3183184 Phases=3 Bus1=27342-12914942.1.2.3 Bus2=27342-12914942c.1.2.3 Switch=Y r1=1e-4 x1=1e-4 r0=1e-4 x0=1e-4 normamps=9999
New Line.3188399 Phases=3 Bus1=27342-12968257.1.2.3 Bus2=27342-12968257c.1.2.3 Switch=Y r1=1e-4 x1=1e-4 r0=1e-4 x0=1e-4 normamps=9999
New Line.3202693 Phases=3 Bus1=27385-13098086.1.2.3 Bus2=27385-13098086c.1.2.3 Switch=Y r1=1e-4 x1=1e-4 r0=1e-4 x0=1e-4 normamps=9999
New Line.3099307 Phases=3 Bus1=27382-12683770.1.2.3 Bus2=27382-12683770c.1.2.3 Switch=Y r1=1e-4 x1=1e-4 r0=1e-4 x0=1e-4 normamps=9999
New Line.2701412 Phases=3 Bus1=27384-10412237.1.2.3 Bus2=27384-10412237c.1.2.3 Switch=Y r1=1e-4 x1=1e-4 r0=1e-4 x0=1e-4 normamps=9999
New Line.2747585 Phases=1 Bus1=27342-10696314.1 Bus2=27342-10696314c.1 Switch=Y r1=1e-4 x1=1e-4 r0=1e-4 x0=1e-4 normamps=9999
New Line.3108295 Phases=1 Bus1=27342-10700531.1 Bus2=27342-10700531c.1 Switch=Y r1=1e-4 x1=1e-4 r0=1e-4 x0=1e-4 normamps=9999
New Line.2746799 Phases=1 Bus1=27342-10704874.2 Bus2=27342-10704874c.2 Switch=Y r1=1e-4 x1=1e-4 r0=1e-4 x0=1e-4 normamps=9999
New Line.2746859 Phases=1 Bus1=27342-10704081.1 Bus2=27342-10704081c.1 Switch=Y r1=1e-4 x1=1e-4 r0=1e-4 x0=1e-4 normamps=9999
New Line.2747326 Phases=1 Bus1=27342-10699891.1 Bus2=27342-10699891c.1 Switch=Y r1=1e-4 x1=1e-4 r0=1e-4 x0=1e-4 normamps=9999
New Line.2710040 Phases=1 Bus1=15604-10500892.2 Bus2=15604-10500892c.2 Switch=Y r1=1e-4 x1=1e-4 r0=1e-4 x0=1e-4 normamps=9999
New Line.2710915 Phases=1 Bus1=15604-10501082.2 Bus2=15604-10501082c.2 Switch=Y r1=1e-4 x1=1e-4 r0=1e-4 x0=1e-4 normamps=9999
New Line.2709776 Phases=1 Bus1=15604-10500207.3 Bus2=15604-10500207c.3 Switch=Y r1=1e-4 x1=1e-4 r0=1e-4 x0=1e-4 normamps=9999
New Line.2709403 Phases=3 Bus1=15604-10502100.1.2.3 Bus2=15604-10502100c.1.2.3 Switch=Y r1=1e-4 x1=1e-4 r0=1e-4 x0=1e-4 normamps=9999
New Line.2999128 Phases=3 Bus1=15604-10502128.1.2.3 Bus2=15604-10502128c.1.2.3 Switch=Y r1=1e-4 x1=1e-4 r0=1e-4 x0=1e-4 normamps=9999
New Line.2709741 Phases=1 Bus1=15604-10501412.2 Bus2=15604-10501412c.2 Switch=Y r1=1e-4 x1=1e-4 r0=1e-4 x0=1e-4 normamps=9999
...
